&time_control
 !run_days                            = 0,
 !run_hours                           = 24,
 !run_minutes                         = 0,
 !run_seconds                         = 0,
 start_year                          = 2022,2022,2022
 start_month                         = 08,08,08
 start_day                           = 08,08,08
 start_hour                          = 00,00,00
 start_minute                        = 00,00,00,
 start_second                        = 00,00,00,
 end_year                            = 2022,2022,2022
 end_month                           = 08,08,08
 end_day                             = 09,09,09
 end_hour                            = 00,00,00
 end_minute                          = 00,00,00,
 end_second                          = 00,00,00,
 interval_seconds                    = 10800,
 input_from_file                     = .true.,.true., .true.,
 history_interval                    = 60,60,60 
 frames_per_outfile                  = 1,1,1,
 restart                             = .false.,
 !restart_interval                    = 1440
 iofields_filename                   = "my_file_d01.txt", "my_file_d01.txt"
 io_form_history                     = 2,
 io_form_input                       = 2,
 io_form_boundary                    = 2,
 debug_level                         = 0,
 auxinput1_inname                    = "met_em.d<domain>.<date>",
 adjust_output_times                 = .true.
/

 &dfi_control
/
 &domains
 time_step                           = 60,
 time_step_fract_num                 = 0,
 time_step_fract_den                 = 1,
 max_dom                             = 1,
 e_we                                = 139,142,235,
 e_sn                                = 121,116,205,
 e_vert                              = 43,43,43,
 p_top_requested                     = 5000,
 num_metgrid_levels                  = 34,
 num_metgrid_soil_levels             = 4,
 dx                                  = 12000,12000,3000,
 dy                                  = 12000,12000,3000,
 grid_id                             = 1,2,3,
 parent_id                           = 0,1,2,
 i_parent_start                      = 1,64,93,
 j_parent_start                      = 1,55,100,
 parent_grid_ratio                   = 1,3,3,
 parent_time_step_ratio              = 1,3,3,
 nproc_x                             = -1
 nproc_y                             = -1
 feedback                            = 0,
 smooth_option                       = 0
 interp_type                         = 0
 force_sfc_in_vinterp                = 1
 lagrange_order                      = 2
 smooth_cg_topo                      = .true.
 sfcp_to_sfcp                        = .false.
 use_adaptive_time_step              = .false.
 step_to_output_time                 = .true.
 target_cfl                          = 1.2,1.2,1.2,
 target_hcfl                         = .84,.84,.84 
 max_step_increase_pct               = 5,51,51,
 max_time_step                       = 27,9,3
 starting_time_step                  = 9,3,1
 min_time_step                       = 9,3,1
 adaptation_domain                   = 1
 /

 &physics
 mp_physics                          = 11,51,51,
 cu_physics                          = 16,93,93,
 ra_lw_physics                       = 4,4,4,
 ra_sw_physics                       = 4,4,4,
 radt                                = 12
 sf_sfclay_physics                   = 1,1,1,
 !iz0tlnd                             = 0
 sf_surface_physics                  = 2,2,2,
 bl_pbl_physics                      = 5,8,8,
 bldt                                = 0
 cudt                                = 0
 kfeta_trigger                       = 1
 icloud                              = 1,
 num_land_cat                        = 21,
 sf_urban_physics                    = 0,0,0,
 mp_zero_out                         = 2,
 mp_zero_out_thresh                  = 1.e-12
 cu_rad_feedback                     = .false.,
 /

 &fdda
 /
 
&dynamics
 hybrid_opt                          = 2,
 etac                                = 0.2,
 rk_ord                              = 3,
 w_damping                           = 1,
 diff_opt                            = 1,      1,      1,  
 km_opt                              = 4,      4,      4,  
 diff_6th_opt                        = 0,      0,      0,  
 diff_6th_factor                     = 0.12,0.12,0.12
 base_temp                           = 290.
 damp_opt                            = 0,
 zdamp                               = 5000.,  5000.,  5000.,
 dampcoef                            = 0.01,   0.01,   0.01
 khdif                               = 0,      0,      0,  
 kvdif                               = 0,      0,      0,  
 epssm                               = 0.4,   0.4,    0.4   
 smdiv                               = 0.1,   0.1,    0.1
 emdiv                               = 0.1,   0.1,    0.1
 non_hydrostatic                     = .true., .true., .true.,
 moist_adv_opt                       = 2,      2,      2,  
 scalar_adv_opt                      = 2,      2,      2,  
 tke_adv_opt                         = 2,      0,      0,  
 time_step_sound                     = 0,      0,      0,  
 h_sca_adv_order                     = 5,      5,      5, 
 use_theta_m = 1, 
/

 &bdy_control
 spec_bdy_width                      = 5,
 specified                           = .true.,.false.,.false.,
 real_data_init_type=3,
 nested                              = .false.,.true.,.true.,
 spec_zone                           = 1,
 relax_zone                          = 4, 
/

 &grib2
 /

 &namelist_quilt
 nio_tasks_per_group = 0
 nio_groups = 1
 / 
